case6.m
function mpc = case6
%CASE9    Power flow data for 6 bus, 2 generator case.
%   Please see CASEFORMAT for details on the case file format.
%
%   

%   MATPOWER
%   

%% MATPOWER Case Format : Version 2
mpc.version = '2';

%%-----  Power Flow Data  -----%%
%% system MVA base
mpc.baseMVA = 100;

%% bus data
%	bus_i	type	Pd	Qd	Gs	Bs	area	Vm	Va	baseKV	zone	Vmax	Vmin
mpc.bus = [
	1	3	0	0	0	0	1	1	0	345	1	1.1	0.9;
	2	2	0	0	0	0	1	1	0	345	1	1.1	0.9;
	3	2	0	0	0	0	1	1	0	345	1	1.1	0.9;
	4	1	200	20	0	0	1	1	0	345	1	1.1	0.9;
	5	1	100	30	0	0	1	1	0	345	1	1.1	0.9;
	6	1	0	0	0	0	1	1	0	345	1	1.1	0.9;
];

%% generator data
%	bus	Pg	Qg	Qmax	Qmin	Vg	mBase	status	Pmax	Pmin	Pc1	Pc2	Qc1min	Qc1max	Qc2min	Qc2max	ramp_agc	ramp_10	ramp_30	ramp_q	apf
mpc.gen = [
	1	0	0	300	-300	1	100	1	230	10	0	0	0	0	0	0	0	0	0	0	0;
%	2	163	0	300	-300	1	100	1	200	10	0	0	0	0	0	0	0	0	0	0	0;
];
%% branch data
%	fbus	tbus	r	x	b	rateA	rateB	rateC	ratio	angle	status	angmin	angmax
mpc.branch = [
	1	2	0.039	0.17	0.358	250	150	150	0	0	1	-360	360;
	1	4	0	    0.0586	0	    250	300	300	0	0	1	-360	360;
	2	3	0.0119	0.1008	0.209	250	150	150	0	0	1	-360	360;
	2	4	0.0085	0.072	0.149	100	250	250	0	0	1	-360	360;
	3	6	0	    0.0625	0   	250	250	250	0	0	1	-360	360;
	4	5	0.032	0.161	0.306	250	250	250	0	0	1	-360	360;
	5	6	0.01	0.085	0.176	250	250	250	0	0	1	-360	360;
];
%%-----  OPF Data  -----%%
%% generator cost data
%	1	startup	shutdown	n	x1	y1	...	xn	yn
%	2	startup	shutdown	n	c(n-1)	...	c0
mpc.gencost = [
 	 2	1500	0	3	0.0012461	40.62286	161.86839;
%    2	3000	0	3	0.1225	5	335;
];
